<?xml version="1.0" encoding="UTF-8"?>
<!DOCTYPE network SYSTEM "http://www.matsim.org/files/dtd/network_v2.dtd">
<network>

<!-- ====================================================================== -->

	<nodes>
		<node id="100245135" x="4469199.862803892" y="5329170.5247477805" >
		</node>
		<node id="100245142" x="4469208.206336352" y="5329173.548861677" >
		</node>
		<node id="1005062079" x="4472611.790525436" y="5333450.299711958" >
		</node>
		<node id="1015813923" x="4470372.058334127" y="5335945.9023190355" >
		</node>
		<node id="1015896247" x="4470325.9057469815" y="5337217.455900543" >
		</node>
		<node id="1015930067" x="4469799.038208116" y="5337608.741431437" >
		</node>
		<node id="1015945911" x="4469654.091213399" y="5337582.177839776" >
		</node>
		<node id="1022674567" x="4471318.775299014" y="5329264.538665059" >
		</node>
		<node id="10258463" x="4472657.547790439" y="5338184.754218879" >
		</node>
		<node id="10258465" x="4472668.434487646" y="5338223.476376638" >
		</node>
		<node id="102763936" x="4469349.718961396" y="5328792.644502827" >
		</node>
		<node id="102853877" x="4469354.341256618" y="5328818.43939722" >
		</node>
		<node id="1029344125" x="4469916.922235318" y="5324702.88842011" >
		</node>
		<node id="1029614925" x="4461538.412334303" y="5341406.703888246" >
		</node>
		<node id="1029614926" x="4461875.774883895" y="5341369.4333605915" >
		</node>
		<node id="1029615040" x="4462216.213855257" y="5341394.278416651" >
		</node>
		<node id="1029615236" x="4461861.807647942" y="5341354.792804119" >
		</node>
		<node id="1029615259" x="4462112.195237423" y="5341388.819104573" >
		</node>
		<node id="1038152061" x="4465477.250158562" y="5333891.937159601" >
		</node>
		<node id="1038247031" x="4467536.159414713" y="5337643.189168636" >
		</node>
		<node id="1038270097" x="4466352.304053136" y="5337598.8257349385" >
		</node>
		<node id="1039059374" x="4452282.8584499145" y="5298458.855835384" >
		</node>
		<node id="1040976854" x="4479816.528740289" y="5306060.948762343" >
		</node>
		<node id="1041826197" x="4471406.461521743" y="5328670.850433917" >
		</node>
		<node id="1042576831" x="4471847.38462201" y="5338799.831921708" >
		</node>
		<node id="1042576834" x="4471917.657588335" y="5338776.623517643" >
		</node>
		<node id="1044876903" x="4468455.821339939" y="5343357.365335426" >
		</node>
		<node id="1045289217" x="4475023.15246173" y="5321302.384597333" >
		</node>
		<node id="104738806" x="4456499.120067661" y="5339694.421977917" >
		</node>
		<node id="1055593982" x="4490224.445393662" y="5350067.23273267" >
		</node>
		<node id="1056431721" x="4473787.961637657" y="5333577.9408839755" >
		</node>
		<node id="1056431765" x="4473796.579190783" y="5333511.195025373" >
		</node>
		<node id="1056470026" x="4474951.699380666" y="5333513.4649075" >
		</node>
		<node id="1056470034" x="4474833.057535576" y="5333628.562175195" >
		</node>
		<node id="1056515631" x="4475797.4529344365" y="5333312.725945735" >
		</node>
		<node id="1058803144" x="4477212.330757148" y="5333689.530557494" >
		</node>
		<node id="1058803145" x="4477057.249439584" y="5333643.793974268" >
		</node>
		<node id="1058803189" x="4476611.855723462" y="5333421.396907937" >
		</node>
		<node id="1058803223" x="4477226.081690855" y="5333703.831030044" >
		</node>
		<node id="1058803232" x="4476933.090334128" y="5333605.74254737" >
		</node>
		<node id="1058813268" x="4477391.67297273" y="5333775.149951297" >
		</node>
		<node id="1058813342" x="4477142.739475994" y="5333664.022400624" >
		</node>
		<node id="1059532324" x="4473388.140280091" y="5341884.32595445" >
		</node>
		<node id="1059532370" x="4473435.9141406845" y="5341838.634527404" >
		</node>
		<node id="1059532462" x="4473131.887424468" y="5342184.148673051" >
		</node>
		<node id="1059663437" x="4472277.734871647" y="5342792.542636938" >
		</node>
		<node id="1059673147" x="4471820.579531984" y="5343089.436738703" >
		</node>
		<node id="1059673172" x="4471694.518944201" y="5343146.34988256" >
		</node>
		<node id="1059694866" x="4472434.882924125" y="5342288.355568568" >
		</node>
		<node id="1059694872" x="4472542.468513833" y="5342551.285394858" >
		</node>
		<node id="1059826936" x="4472709.353122141" y="5343091.51549377" >
		</node>
		<node id="1059827045" x="4472028.546010198" y="5341095.574006105" >
		</node>
		<node id="1059847431" x="4471827.480164924" y="5340504.093321428" >
		</node>
		<node id="1059847463" x="4471885.812000266" y="5340624.832594564" >
		</node>
		<node id="106370593" x="4456293.356730808" y="5339925.467440478" >
		</node>
		<node id="106370595" x="4456267.136424312" y="5340009.146610259" >
		</node>
		<node id="106370656" x="4456212.956100713" y="5340007.582665145" >
		</node>
		<node id="1065448779" x="4472487.801742596" y="5353610.064216943" >
		</node>
		<node id="10718542" x="4491035.414102624" y="5352076.4993720455" >
		</node>
		<node id="1079918851" x="4471977.442512486" y="5333355.500083636" >
		</node>
		<node id="1080618025" x="4470155.228682073" y="5338129.27227509" >
		</node>
		<node id="1089505582" x="4453746.248121294" y="5301492.465327816" >
		</node>
		<node id="1089506246" x="4454011.263764853" y="5301752.946508188" >
		</node>
		<node id="1099465448" x="4458873.360507978" y="5332320.644629362" >
		</node>
		<node id="1099465454" x="4460046.3519900935" y="5331903.97846368" >
		</node>
		<node id="1099465477" x="4460221.267616601" y="5331917.1931444695" >
		</node>
		<node id="1099538478" x="4455546.462643138" y="5331854.38286911" >
		</node>
		<node id="1099538516" x="4455237.643335114" y="5331500.340538457" >
		</node>
		<node id="1099538529" x="4456075.0996228475" y="5332454.457299864" >
		</node>
		<node id="1099538607" x="4457022.901552505" y="5332652.231819648" >
		</node>
		<node id="1099538663" x="4455510.268203832" y="5332772.0488096485" >
		</node>
		<node id="1099549787" x="4456755.178903594" y="5332627.328154921" >
		</node>
		<node id="1099560779" x="4454166.436906346" y="5331199.595467653" >
		</node>
		<node id="1099560796" x="4453828.372079413" y="5331179.627950724" >
		</node>
		<node id="1099560799" x="4454380.311466063" y="5331223.0289597325" >
		</node>
		<node id="1099778200" x="4464487.862622292" y="5332048.629133146" >
		</node>
		<node id="1099778322" x="4464053.274302153" y="5331884.725644371" >
		</node>
		<node id="1099778352" x="4463600.907529983" y="5332002.208465048" >
		</node>
		<node id="1099822058" x="4464707.987897389" y="5332311.63813612" >
		</node>
		<node id="1099822089" x="4465276.079889826" y="5332790.6120559685" >
		</node>
		<node id="1116160296" x="4442694.926116813" y="5280198.589024045" >
		</node>
		<node id="1116160358" x="4443017.779839094" y="5280449.863110887" >
		</node>
		<node id="1116160578" x="4443032.3252981175" y="5280476.907602402" >
		</node>
		<node id="1116160825" x="4442699.317850105" y="5280183.023058064" >
		</node>
		<node id="1117172729" x="4472728.279244723" y="5338267.679880115" >
		</node>
		<node id="1130763024" x="4456623.207033226" y="5315255.475620918" >
		</node>
		<node id="11307843" x="4467581.1923707295" y="5337656.221388322" >
		</node>
		<node id="11307846" x="4467919.063312771" y="5337703.728978421" >
		</node>
		<node id="1151052931" x="4418650.898874232" y="5324938.183474129" >
		</node>
		<node id="11582668" x="4478183.0732018" y="5339182.8739652475" >
		</node>
		<node id="1158359842" x="4489301.537255002" y="5359212.55273748" >
		</node>
		<node id="1158359853" x="4489179.347554381" y="5357756.2978859" >
		</node>
		<node id="1158359892" x="4489284.3999534445" y="5359142.029757507" >
		</node>
		<node id="1158359909" x="4487314.98494691" y="5357849.919066482" >
		</node>
		<node id="1158359913" x="4489023.365631574" y="5358062.971981002" >
		</node>
		<node id="11586737" x="4481768.186685959" y="5333891.111220049" >
		</node>
		<node id="11586740" x="4480695.437098647" y="5333914.508111894" >
		</node>
		<node id="11586744" x="4478950.4017483" y="5333793.211036737" >
		</node>
		<node id="11586749" x="4477018.597631984" y="5333639.256893684" >
		</node>
		<node id="11586926" x="4482091.293512407" y="5333650.352754146" >
		</node>
		<node id="11591932" x="4479555.42264509" y="5306071.854343712" >
		</node>
		<node id="11594630" x="4476554.702348858" y="5315614.90682446" >
		</node>
		<node id="1159556249" x="4469000.360696279" y="5329665.989691842" >
		</node>
		<node id="1159556252" x="4468991.771316517" y="5329712.327085197" >
		</node>
		<node id="1159556282" x="4468983.881896968" y="5329709.145154818" >
		</node>
		<node id="1159556289" x="4469008.548787866" y="5329669.303462908" >
		</node>
		<node id="1159566725" x="4468713.853407513" y="5330325.12868862" >
		</node>
		<node id="11597149" x="4476262.77484977" y="5322694.075965827" >
		</node>
		<node id="11598421" x="4472938.823918214" y="5342403.965386357" >
		</node>
		<node id="1163728134" x="4452356.858424243" y="5298392.229617897" >
		</node>
		<node id="1165376915" x="4473460.699360389" y="5341862.604394054" >
		</node>
		<node id="1165723225" x="4454896.448239302" y="5334366.824832146" >
		</node>
		<node id="1165723266" x="4455062.489572373" y="5334186.4743643915" >
		</node>
		<node id="11658079" x="4472316.701003252" y="5352457.57980882" >
		</node>
		<node id="11666517" x="4459143.685545267" y="5332073.648298995" >
		</node>
		<node id="117236138" x="4443864.581559804" y="5328611.817250943" >
		</node>
		<node id="117236143" x="4443865.694917706" y="5328600.752824031" >
		</node>
		<node id="1174101608" x="4466596.812753166" y="5337680.565961989" >
		</node>
		<node id="1174101852" x="4466361.409953463" y="5337671.195229609" >
		</node>
		<node id="1174102302" x="4466502.123976764" y="5337668.4997825315" >
		</node>
		<node id="117647491" x="4476137.310716607" y="5322581.5464070905" >
		</node>
		<node id="11840725" x="4491434.504314122" y="5353689.453635407" >
		</node>
		<node id="11840727" x="4491493.261461271" y="5353683.738366018" >
		</node>
		<node id="11840731" x="4491576.305427557" y="5353532.752577738" >
		</node>
		<node id="1188831364" x="4472026.324175791" y="5353201.836669712" >
		</node>
		<node id="1191275215" x="4479115.345157708" y="5356314.1473797625" >
		</node>
		<node id="1191275330" x="4479103.405748301" y="5356322.931603685" >
		</node>
		<node id="1192428741" x="4472584.005221593" y="5342725.398696464" >
		</node>
		<node id="1215293268" x="4477455.930619351" y="5312328.384546286" >
		</node>
		<node id="1218818675" x="4472663.10939052" y="5338142.639601905" >
		</node>
		<node id="12215022" x="4474953.091698283" y="5319997.947706552" >
		</node>
		<node id="12215025" x="4474122.353799026" y="5322393.062142924" >
		</node>
		<node id="1225697394" x="4480832.025731802" y="5327543.960476736" >
		</node>
		<node id="1225697600" x="4480703.333670218" y="5327337.550504169" >
		</node>
		<node id="1229421454" x="4464448.632578644" y="5342802.339577287" >
		</node>
		<node id="1229421562" x="4464436.140048804" y="5342814.0155707095" >
		</node>
		<node id="1234017864" x="4450006.301266855" y="5289481.615102378" >
		</node>
		<node id="1234017871" x="4449992.431141484" y="5289485.715407192" >
		</node>
		<node id="123412634" x="4438509.153075415" y="5327553.825582464" >
		</node>
		<node id="1238967176" x="4465916.700728085" y="5344237.8140854025" >
		</node>
		<node id="124329836" x="4451879.060715716" y="5343960.109197249" >
		</node>
		<node id="1245771568" x="4481065.550595754" y="5327963.57302857" >
		</node>
		<node id="125070679" x="4480495.384358609" y="5337054.694466744" >
		</node>
		<node id="125070697" x="4480877.968150847" y="5336572.9239941705" >
		</node>
		<node id="125070716" x="4480873.326781602" y="5336677.285240294" >
		</node>
		<node id="125070736" x="4480882.608438678" y="5336885.478531202" >
		</node>
		<node id="125075834" x="4480593.45795648" y="5336907.348510744" >
		</node>
		<node id="1255726875" x="4493408.993175073" y="5338341.539691802" >
		</node>
		<node id="12589290" x="4454555.025344427" y="5331290.516015765" >
		</node>
		<node id="126188277" x="4470685.722153221" y="5335525.227998362" >
		</node>
		<node id="126188280" x="4470690.193747858" y="5335532.49955087" >
		</node>
		<node id="1264130990" x="4484351.7559169205" y="5334623.721112402" >
		</node>
		<node id="127413" x="4450453.885791357" y="5343015.8722052425" >
		</node>
		<node id="127414" x="4450603.949511111" y="5343140.029368073" >
		</node>
		<node id="12778929" x="4478342.503591773" y="5324704.0341774635" >
		</node>
		<node id="12778934" x="4478255.005623433" y="5324764.154449558" >
		</node>
		<node id="12778935" x="4478263.2443419555" y="5324898.2782327505" >
		</node>
		<node id="12779516" x="4481443.506029976" y="5357104.12334434" >
		</node>
		<node id="12779521" x="4480184.348278773" y="5357080.318866659" >
		</node>
		<node id="12779523" x="4479992.058716941" y="5357077.135695658" >
		</node>
		<node id="12779525" x="4479880.2195298495" y="5357036.999493036" >
		</node>
		<node id="1281954197" x="4469387.730235806" y="5343493.682620694" >
		</node>
		<node id="128957" x="4457280.425134446" y="5337510.043608167" >
		</node>
		<node id="128958" x="4457382.531653196" y="5337507.112415447" >
		</node>
		<node id="128961" x="4457549.81916678" y="5337737.807336849" >
		</node>
		<node id="128963" x="4457507.517709399" y="5337749.208548558" >
		</node>
		<node id="128969" x="4458048.948403834" y="5338487.853884213" >
		</node>
		<node id="128970" x="4458074.618295186" y="5338591.025650573" >
		</node>
		<node id="128971" x="4458203.181815252" y="5338855.606178988" >
		</node>
		<node id="128981" x="4458299.644419187" y="5339596.93818146" >
		</node>
		<node id="128983" x="4458289.8376339935" y="5339689.528279281" >
		</node>
		<node id="129001" x="4458947.670481479" y="5340861.0544649465" >
		</node>
		<node id="129002" x="4459121.154792388" y="5340852.247181013" >
		</node>
		<node id="129006" x="4459527.4060593825" y="5340876.528041244" >
		</node>
		<node id="129009" x="4459524.396542705" y="5340892.384265723" >
		</node>
		<node id="129015" x="4460427.231680109" y="5341409.623367024" >
		</node>
		<node id="129016" x="4460593.453172534" y="5341444.823796335" >
		</node>
		<node id="129019" x="4460404.525998523" y="5341386.217693872" >
		</node>
		<node id="129022" x="4461175.13034326" y="5341436.531352271" >
		</node>
		<node id="129031" x="4462394.283349641" y="5341447.088867804" >
		</node>
		<node id="129054" x="4464486.074145817" y="5342817.540641464" >
		</node>
		<node id="129055" x="4464901.004688002" y="5342971.972732217" >
		</node>
		<node id="129060" x="4465389.890983399" y="5343095.027421687" >
		</node>
		<node id="129069" x="4465396.196154198" y="5343126.325018042" >
		</node>
		<node id="129071" x="4465711.793110869" y="5343191.037036201" >
		</node>
		<node id="129077" x="4466108.11619047" y="5343878.811586077" >
		</node>
		<node id="129082" x="4466114.826184866" y="5343809.072161362" >
		</node>
		<node id="129085" x="4465893.588007016" y="5344313.245301513" >
		</node>
		<node id="129088" x="4465881.839531877" y="5344303.952676415" >
		</node>
		<node id="129095" x="4465417.838811294" y="5346157.26322284" >
		</node>
		<node id="129100" x="4465395.887825383" y="5346158.697608514" >
		</node>
		<node id="129128" x="4468729.556168923" y="5350907.004967894" >
		</node>
		<node id="129129" x="4469064.166451532" y="5351130.89843679" >
		</node>
		<node id="129141" x="4471403.670201994" y="5352803.862774538" >
		</node>
		<node id="129152" x="4473262.88429101" y="5354114.098497791" >
		</node>
		<node id="129154" x="4473540.006391876" y="5354297.13551444" >
		</node>
		<node id="129155" x="4473136.957041438" y="5354053.155119785" >
		</node>
		<node id="129176" x="4477471.660174004" y="5355080.679862011" >
		</node>
		<node id="129177" x="4477647.154932681" y="5355116.703666193" >
		</node>
		<node id="129178" x="4478202.3934558425" y="5355346.459757509" >
		</node>
		<node id="129180" x="4477831.366621119" y="5355188.7495052405" >
		</node>
		<node id="129181" x="4477599.936524048" y="5355121.526884688" >
		</node>
		<node id="129183" x="4478316.395829176" y="5355420.837500948" >
		</node>
		<node id="129186" x="4478895.227160902" y="5356031.204747157" >
		</node>
		<node id="129187" x="4478885.157793861" y="5356038.581358303" >
		</node>
		<node id="129194" x="4479566.341082786" y="5356714.4996518" >
		</node>
		<node id="129197" x="4479469.160102205" y="5356622.9892326305" >
		</node>
		<node id="129210" x="4480777.802538813" y="5358728.257975551" >
		</node>
		<node id="129211" x="4480750.007574753" y="5358708.280897085" >
		</node>
		<node id="1292156702" x="4489569.48507688" y="5361937.7659165235" >
		</node>
		<node id="1292156721" x="4489574.361901164" y="5361915.895197324" >
		</node>
		<node id="129222" x="4481595.397301144" y="5359745.750794986" >
		</node>
		<node id="129225" x="4483199.304382228" y="5360858.605532435" >
		</node>
		<node id="1292255532" x="4483206.678379803" y="5360862.497861407" >
		</node>
		<node id="1292255557" x="4487079.117007033" y="5361583.683600728" >
		</node>
		<node id="1292255559" x="4486471.0750954775" y="5361542.594554048" >
		</node>
		<node id="1292255561" x="4484600.07825046" y="5361331.764559036" >
		</node>
		<node id="1292255563" x="4484587.146793049" y="5361328.99755641" >
		</node>
		<node id="1292255570" x="4483201.182125069" y="5360874.857295987" >
		</node>
		<node id="1292255571" x="4486444.175852261" y="5361526.824228964" >
		</node>
		<node id="1292255574" x="4487097.332979176" y="5361598.787306995" >
		</node>
		<node id="1292255577" x="4487077.339437514" y="5361596.575636307" >
		</node>
		<node id="1292255579" x="4484597.581449547" y="5361345.03742646" >
		</node>
		<node id="1292255588" x="4486468.900667603" y="5361528.344031429" >
		</node>
		<node id="1292255590" x="4486447.690681796" y="5361541.015929773" >
		</node>
		<node id="1292255592" x="4484585.835223321" y="5361342.345039391" >
		</node>
		<node id="1292255596" x="4487098.791075336" y="5361585.428970833" >
		</node>
		<node id="129226" x="4483192.769766582" y="5360870.489900835" >
		</node>
		<node id="129230" x="4483618.963337228" y="5361042.677674462" >
		</node>
		<node id="129231" x="4484077.826368252" y="5361200.360543747" >
		</node>
		<node id="129234" x="4483467.937372198" y="5360995.512472954" >
		</node>
		<node id="129258" x="4489291.077253932" y="5362046.672630442" >
		</node>
		<node id="1294293573" x="4471627.460598379" y="5321454.364427714" >
		</node>
		<node id="1295696893" x="4470037.795016188" y="5323281.431322311" >
		</node>
		<node id="1297178915" x="4469635.466468805" y="5337714.734977574" >
		</node>
		<node id="129902" x="4451595.158692307" y="5343957.0860454235" >
		</node>
		<node id="129903" x="4451608.599435083" y="5343978.167162512" >
		</node>
		<node id="129910" x="4452044.338138975" y="5343814.308869195" >
		</node>
		<node id="129911" x="4452086.957105854" y="5343786.249985065" >
		</node>
		<node id="129922" x="4455657.095943115" y="5340541.668608177" >
		</node>
		<node id="129923" x="4455673.461377076" y="5340525.839892795" >
		</node>
		<node id="129934" x="4457737.653540673" y="5338454.35428661" >
		</node>
		<node id="129935" x="4457764.857400116" y="5338089.5061482815" >
		</node>
		<node id="129937" x="4457947.257872173" y="5338381.327381782" >
		</node>
		<node id="129944" x="4457947.63742178" y="5338306.642729069" >
		</node>
		<node id="129950" x="4457967.929999849" y="5338260.8680015495" >
		</node>
		<node id="130098" x="4451684.297538261" y="5344105.964144942" >
		</node>
		<node id="130099" x="4451738.185259892" y="5344174.697948501" >
		</node>
		<node id="130105" x="4451669.221840639" y="5344182.899624669" >
		</node>
		<node id="130114" x="4454901.093445685" y="5341286.069251543" >
		</node>
		<node id="130116" x="4455666.708289259" y="5340555.104829713" >
		</node>
		<node id="130117" x="4455684.146566493" y="5340536.710188976" >
		</node>
		<node id="130122" x="4457863.940361321" y="5338364.561065995" >
		</node>
		<node id="130124" x="4457470.561218281" y="5337620.41389752" >
		</node>
		<node id="130125" x="4457410.395817602" y="5337543.311418538" >
		</node>
		<node id="1309348733" x="4472000.677961022" y="5353357.186444573" >
		</node>
		<node id="1309348758" x="4472067.111330953" y="5353416.162030095" >
		</node>
		<node id="1312713116" x="4489973.234416195" y="5301357.2849718565" >
		</node>
		<node id="1332001294" x="4469961.838129498" y="5337780.360352082" >
		</node>
		<node id="1339715206" x="4427680.626242346" y="5326166.105585694" >
		</node>
		<node id="1339715212" x="4427669.41641778" y="5326177.367785302" >
		</node>
		<node id="1339715215" x="4427702.139540476" y="5326185.195697671" >
		</node>
		<node id="1339715221" x="4427693.60136108" y="5326195.53450402" >
		</node>
		<node id="13446839" x="4479773.0025943825" y="5306100.484958021" >
		</node>
		<node id="13447530" x="4501002.26441024" y="5298022.102964407" >
		</node>
		<node id="1353439163" x="4433326.118488583" y="5326755.663655987" >
		</node>
		<node id="1358003274" x="4470068.7380333785" y="5327290.10334447" >
		</node>
		<node id="1358003280" x="4469817.361374831" y="5327353.336189609" >
		</node>
		<node id="1358003299" x="4470144.4196517505" y="5327390.918267465" >
		</node>
		<node id="1358003311" x="4469856.690517422" y="5327502.78689049" >
		</node>
		<node id="1365085558" x="4471868.331699835" y="5333337.688739344" >
		</node>
		<node id="1377356309" x="4450325.129921962" y="5329211.919377926" >
		</node>
		<node id="1377356310" x="4450322.488919208" y="5329226.0424981965" >
		</node>
		<node id="1377356312" x="4450763.367837719" y="5329570.181277289" >
		</node>
		<node id="1377356313" x="4450750.89351359" y="5329578.161525634" >
		</node>
		<node id="138546" x="4465504.751882987" y="5346245.951435308" >
		</node>
		<node id="138549" x="4465433.109666735" y="5346335.0230528815" >
		</node>
		<node id="138551" x="4471568.132726972" y="5352903.216903472" >
		</node>
		<node id="138552" x="4471740.90284597" y="5353027.632143985" >
		</node>
		<node id="138553" x="4471868.14734528" y="5353117.75043751" >
		</node>
		<node id="138554" x="4472035.958405611" y="5353239.396899152" >
		</node>
		<node id="138555" x="4472089.076437512" y="5353257.016499531" >
		</node>
		<node id="138560" x="4472069.830826837" y="5353141.163399246" >
		</node>
		<node id="138561" x="4471971.31983517" y="5353346.200179004" >
		</node>
		<node id="138570" x="4472241.96443034" y="5353365.20936461" >
		</node>
		<node id="138571" x="4472321.26907276" y="5353399.516554637" >
		</node>
		<node id="138574" x="4472523.47213113" y="5353586.461786766" >
		</node>
		<node id="138575" x="4472695.791698074" y="5353709.162138064" >
		</node>
		<node id="138578" x="4472821.62191626" y="5353604.675986114" >
		</node>
		<node id="1386640068" x="4470474.059085902" y="5335805.799954677" >
		</node>
		<node id="13876243" x="4473720.33280208" y="5347453.601374852" >
		</node>
		<node id="13876246" x="4473718.900564278" y="5347460.179804815" >
		</node>
		<node id="13878136" x="4471326.6732184645" y="5338849.161031092" >
		</node>
		<node id="13878137" x="4471386.777414671" y="5338816.767825872" >
		</node>
		<node id="13884033" x="4466077.091195542" y="5343554.272983985" >
		</node>
		<node id="13884038" x="4465273.81335295" y="5346116.039558958" >
		</node>
		<node id="13884045" x="4465407.535985824" y="5345670.249793186" >
		</node>
		<node id="13887887" x="4469332.683332671" y="5337824.48180932" >
		</node>
		<node id="13888745" x="4472721.786925783" y="5351370.5500229625" >
		</node>
		<node id="1393033809" x="4455323.727254127" y="5335317.054492541" >
		</node>
		<node id="1396409985" x="4487671.225990071" y="5335657.214693053" >
		</node>
		<node id="1396522568" x="4489563.638385433" y="5361963.752794509" >
		</node>
		<node id="1396522577" x="4489586.589101189" y="5362008.690404278" >
		</node>
		<node id="1396522581" x="4489494.513076766" y="5362236.585357605" >
		</node>
		<node id="1401202100" x="4455707.239145398" y="5311688.579990103" >
		</node>
		<node id="1401202103" x="4456042.8313783575" y="5312249.504034179" >
		</node>
		<node id="1401202106" x="4456158.187019507" y="5312611.712100132" >
		</node>
		<node id="1406157310" x="4458802.775629439" y="5323199.761948771" >
		</node>
		<node id="1406157311" x="4459358.365382898" y="5323774.76828618" >
		</node>
		<node id="1406157312" x="4459640.420904864" y="5324043.296645568" >
		</node>
		<node id="1406157313" x="4460098.304798476" y="5324407.431723732" >
		</node>
		<node id="1412409143" x="4493062.117329353" y="5337816.825577973" >
		</node>
		<node id="1412442719" x="4460198.366584509" y="5324441.3297251705" >
		</node>
		<node id="1412442720" x="4460548.429077842" y="5324670.656071149" >
		</node>
		<node id="1412442721" x="4460820.958748821" y="5324890.602888052" >
		</node>
		<node id="1412442722" x="4461167.0226755915" y="5325411.107031105" >
		</node>
		<node id="1412442723" x="4461488.969053301" y="5325940.800638808" >
		</node>
		<node id="1412442724" x="4461635.083206387" y="5326182.930404" >
		</node>
		<node id="1412442725" x="4461728.121612957" y="5326336.204795777" >
		</node>
		<node id="1412455582" x="4460702.621429281" y="5324829.1980856145" >
		</node>
		<node id="1412455590" x="4460910.164499489" y="5325060.436507652" >
		</node>
		<node id="1412455599" x="4461114.631163507" y="5325381.227746496" >
		</node>
		<node id="1419749802" x="4493717.651360721" y="5338299.991839012" >
		</node>
		<node id="1419749809" x="4493725.941465616" y="5338292.132322289" >
		</node>
		<node id="1422495351" x="4455533.461696249" y="5311303.324824371" >
		</node>
		<node id="1423221462" x="4477851.7156128585" y="5339339.648108982" >
		</node>
		<node id="1423221465" x="4476680.297932918" y="5339684.201154631" >
		</node>
		<node id="1423221486" x="4477227.90444018" y="5339138.549397321" >
		</node>
		<node id="1423221510" x="4477259.2505322285" y="5339225.935743502" >
		</node>
		<node id="1423221521" x="4477276.140987442" y="5339273.894067265" >
		</node>
		<node id="1423221536" x="4477841.517021423" y="5339315.34689013" >
		</node>
		<node id="1423221557" x="4477314.366547771" y="5339380.868332077" >
		</node>
		<node id="1423221569" x="4477544.743045944" y="5339391.509733275" >
		</node>
		<node id="1423221588" x="4477397.41628784" y="5339435.614032673" >
		</node>
		<node id="1423221593" x="4477563.5025879275" y="5339452.282463526" >
		</node>
		<node id="1423221608" x="4477425.758232395" y="5339497.638224955" >
		</node>
		<node id="1423221612" x="4477168.244642074" y="5339504.556941524" >
		</node>
		<node id="1423221638" x="4477015.258027765" y="5339550.428470804" >
		</node>
		<node id="1423221645" x="4477182.809513238" y="5339569.615194844" >
		</node>
		<node id="1423221646" x="4477390.065158736" y="5339591.729379484" >
		</node>
		<node id="1423221663" x="4477046.263434436" y="5339613.863395062" >
		</node>
		<node id="1423221687" x="4476808.125553355" y="5339669.03523921" >
		</node>
		<node id="1423221723" x="4477466.457383899" y="5339725.540800698" >
		</node>
		<node id="1423221730" x="4477554.074093315" y="5339812.706673119" >
		</node>
		<node id="1423221762" x="4477791.658264483" y="5339922.438778805" >
		</node>
		<node id="1423221784" x="4477926.635906552" y="5340016.954017569" >
		</node>
		<node id="1423221802" x="4477951.218213565" y="5340045.191699578" >
		</node>
		<node id="1423221822" x="4477973.556949471" y="5340077.730332107" >
		</node>
		<node id="1423221835" x="4477992.504281955" y="5340113.795946628" >
		</node>
		<node id="1423221859" x="4478021.409915645" y="5340193.445527985" >
		</node>
		<node id="1423221872" x="4478031.083305713" y="5340247.950026493" >
		</node>
		<node id="1423221888" x="4478030.360858557" y="5340342.102733623" >
		</node>
		<node id="1430876311" x="4471978.356028603" y="5353045.037196531" >
		</node>
		<node id="1430876317" x="4472004.331888187" y="5353004.543700301" >
		</node>
		<node id="14388263" x="4482168.255242597" y="5333893.550351872" >
		</node>
		<node id="14388264" x="4481969.546568948" y="5333903.203507641" >
		</node>
		<node id="14388274" x="4484099.697659282" y="5334514.179685013" >
		</node>
		<node id="146578" x="4458183.407221037" y="5340843.108268435" >
		</node>
		<node id="14658578" x="4471494.912839095" y="5327399.470646848" >
		</node>
		<node id="14658580" x="4471571.345856541" y="5327678.023532788" >
		</node>
		<node id="146586" x="4458738.056285024" y="5340857.996274378" >
		</node>
		<node id="14658609" x="4471767.98461995" y="5327403.877737383" >
		</node>
		<node id="14658619" x="4473949.1806160025" y="5322605.325717393" >
		</node>
		<node id="14658674" x="4471353.207516593" y="5329872.883423775" >
		</node>
		<node id="146607" x="4466678.887999276" y="5343288.259999543" >
		</node>
		<node id="146622" x="4469617.468006629" y="5343512.390849938" >
		</node>
		<node id="146653" x="4473134.278980495" y="5342193.322302504" >
		</node>
		<node id="146675" x="4475143.019600505" y="5340430.697873433" >
		</node>
		<node id="146710" x="4479724.932567537" y="5338138.268962043" >
		</node>
		<node id="146717" x="4479913.438476826" y="5337924.261861976" >
		</node>
		<node id="146729" x="4480986.530113746" y="5336370.941860111" >
		</node>
		<node id="146739" x="4481978.156176249" y="5334386.16187791" >
		</node>
		<node id="146741" x="4482104.396141034" y="5333855.843908838" >
		</node>
		<node id="146754" x="4482168.46705692" y="5333341.835214302" >
		</node>
		<node id="1467560585" x="4465633.806459183" y="5334643.244203137" >
		</node>
		<node id="146773" x="4481801.390562173" y="5329786.687450193" >
		</node>
		<node id="146774" x="4481726.975897782" y="5329539.518183548" >
		</node>
		<node id="146775" x="4481587.485651804" y="5329143.24791999" >
		</node>
		<node id="146783" x="4481071.278559702" y="5327974.5622557625" >
		</node>